
#======================================================================
# CRYSTAL DATA
#----------------------------------------------------------------------
data_VESTA_phase_1

_chemical_name_common                  'C1 0GPa opt D3'
_cell_length_a                         6.624873
_cell_length_b                         9.201336
_cell_length_c                         9.566738
_cell_angle_alpha                      65.907852
_cell_angle_beta                       69.241669
_cell_angle_gamma                      76.098434
_cell_volume                           494.677269
_space_group_name_H-M_alt              'P 1'
_space_group_IT_number                 1

loop_
_space_group_symop_operation_xyz
   'x, y, z'

loop_
   _atom_site_label
   _atom_site_occupancy
   _atom_site_fract_x
   _atom_site_fract_y
   _atom_site_fract_z
   _atom_site_adp_type
   _atom_site_B_iso_or_equiv
   _atom_site_type_symbol
   C1         1.0     0.306108     0.698082     0.265919    Biso  1.000000 C
   C2         1.0     0.707692     0.270116     0.746195    Biso  1.000000 C
   C3         1.0     0.337829     0.857219     0.197187    Biso  1.000000 C
   C4         1.0     0.676035     0.110968     0.814898    Biso  1.000000 C
   C5         1.0     0.480187     0.914831     0.238713    Biso  1.000000 C
   C6         1.0     0.533657     0.053352     0.773395    Biso  1.000000 C
   C7         1.0     0.580761     0.812245     0.352003    Biso  1.000000 C
   C8         1.0     0.432987     0.155949     0.660165    Biso  1.000000 C
   C9         1.0     0.549567     0.646483     0.428674    Biso  1.000000 C
   C10        1.0     0.464121     0.321722     0.583514    Biso  1.000000 C
   C11        1.0     0.411087     0.586282     0.381673    Biso  1.000000 C
   C12        1.0     0.602627     0.381920     0.630496    Biso  1.000000 C
   C13        1.0     0.371548     0.423026     0.458333    Biso  1.000000 C
   C14        1.0     0.642137     0.545179     0.553854    Biso  1.000000 C
   C15        1.0     0.236612     0.355190     0.412498    Biso  1.000000 C
   C16        1.0     0.777076     0.613000     0.599700    Biso  1.000000 C
   C17        1.0     0.262312     0.366225     0.262191    Biso  1.000000 C
   C18        1.0     0.751324     0.601965     0.750016    Biso  1.000000 C
   C19        1.0     0.128870     0.300946     0.213905    Biso  1.000000 C
   C20        1.0     0.884777     0.667183     0.798355    Biso  1.000000 C
   C21        1.0     0.940161     0.228363     0.318066    Biso  1.000000 C
   C22        1.0     0.073492     0.739771     0.694207    Biso  1.000000 C
   C23        1.0     0.816658     0.179155     0.258048    Biso  1.000000 C
   C24        1.0     0.197026     0.788897     0.754271    Biso  1.000000 C
   C25        1.0     0.051645     0.257386     1.005931    Biso  1.000000 C
   C26        1.0     0.962065     0.710583     0.006395    Biso  1.000000 C
   C27        1.0     0.184092     0.313018     0.053959    Biso  1.000000 C
   C28        1.0     0.829587     0.655023     0.958322    Biso  1.000000 C
   H1         1.0     0.197005     0.655871     0.232210    Biso  1.000000 H
   H2         1.0     0.816819     0.312339     0.779872    Biso  1.000000 H
   H3         1.0     0.253635     0.938560     0.110079    Biso  1.000000 H
   H4         1.0     0.760292     0.029619     0.901964    Biso  1.000000 H
   H5         1.0     0.510810     0.040015     0.180665    Biso  1.000000 H
   H6         1.0     0.503096     0.928156     0.831413    Biso  1.000000 H
   H7         1.0     0.685926     0.858651     0.385594    Biso  1.000000 H
   H8         1.0     0.327814     0.109531     0.626590    Biso  1.000000 H
   H9         1.0     0.110236     0.286069     0.510385    Biso  1.000000 H
   H10        1.0     0.903495     0.682087     0.501827    Biso  1.000000 H
   H11        1.0     0.395723     0.427909     0.165188    Biso  1.000000 H
   H12        1.0     0.617874     0.540302     0.846990    Biso  1.000000 H
   H13        1.0     0.886055     0.212875     0.444294    Biso  1.000000 H
   H14        1.0     0.127579     0.755318     0.567966    Biso  1.000000 H
   H15        1.0     0.665919     0.128016     0.337679    Biso  1.000000 H
   H16        1.0     0.347768     0.840041     0.674652    Biso  1.000000 H
   H17        1.0     0.095728     0.266384     0.881614    Biso  1.000000 H
   H18        1.0     0.918008     0.701513     0.130730    Biso  1.000000 H
   H19        1.0     0.328911     0.366888     0.966568    Biso  1.000000 H
   H20        1.0     0.684773     0.601138     0.045700    Biso  1.000000 H
   N1         1.0     0.867453     0.192751     0.104140    Biso  1.000000 N
   N2         1.0     0.146259     0.775225     0.908197    Biso  1.000000 N
