
#======================================================================
# CRYSTAL DATA
#----------------------------------------------------------------------
data_VESTA_phase_1

_chemical_name_common                  'C1 6GPa opt D3'
_cell_length_a                         4.698411
_cell_length_b                         10.225892
_cell_length_c                         10.173473
_cell_angle_alpha                      60.537373
_cell_angle_beta                       63.015694
_cell_angle_gamma                      70.914734
_cell_volume                           375.836054
_space_group_name_H-M_alt              'P 1'
_space_group_IT_number                 1

loop_
_space_group_symop_operation_xyz
   'x, y, z'

loop_
   _atom_site_label
   _atom_site_occupancy
   _atom_site_fract_x
   _atom_site_fract_y
   _atom_site_fract_z
   _atom_site_adp_type
   _atom_site_B_iso_or_equiv
   _atom_site_type_symbol
   C1         1.0     0.277439     0.679519     0.239521    Biso  1.000000 C
   C2         1.0     0.722561     0.320481     0.760479    Biso  1.000000 C
   C3         1.0     0.282308     0.832602     0.161903    Biso  1.000000 C
   C4         1.0     0.717692     0.167398     0.838096    Biso  1.000000 C
   C5         1.0     0.432183     0.900173     0.201259    Biso  1.000000 C
   C6         1.0     0.567817     0.099827     0.798741    Biso  1.000000 C
   C7         1.0     0.548990     0.813758     0.324231    Biso  1.000000 C
   C8         1.0     0.451010     0.186242     0.675769    Biso  1.000000 C
   C9         1.0     0.532975     0.655870     0.413440    Biso  1.000000 C
   C10        1.0     0.467025     0.344130     0.586560    Biso  1.000000 C
   C11        1.0     0.406952     0.584950     0.363166    Biso  1.000000 C
   C12        1.0     0.593048     0.415050     0.636834    Biso  1.000000 C
   C13        1.0     0.378523     0.428028     0.447637    Biso  1.000000 C
   C14        1.0     0.621477     0.571972     0.552363    Biso  1.000000 C
   C15        1.0     0.250693     0.351174     0.403236    Biso  1.000000 C
   C16        1.0     0.749307     0.648827     0.596764    Biso  1.000000 C
   C17        1.0     0.261294     0.378919     0.256816    Biso  1.000000 C
   C18        1.0     0.738706     0.621081     0.743184    Biso  1.000000 C
   C19        1.0     0.119512     0.292010     0.230794    Biso  1.000000 C
   C20        1.0     0.880488     0.707990     0.769206    Biso  1.000000 C
   C21        1.0     0.958113     0.167787     0.353742    Biso  1.000000 C
   C22        1.0     0.041887     0.832213     0.646258    Biso  1.000000 C
   C23        1.0     0.819214     0.096213     0.317052    Biso  1.000000 C
   C24        1.0     0.180786     0.903787     0.682948    Biso  1.000000 C
   C25        1.0    -0.002441     0.248728     1.050285    Biso  1.000000 C
   C26        1.0     1.002441     0.751272    -0.050286    Biso  1.000000 C
   C27        1.0     0.138792     0.329994     0.075270    Biso  1.000000 C
   C28        1.0     0.861208     0.670006     0.924730    Biso  1.000000 C
   H1         1.0     0.152257     0.627472     0.214890    Biso  1.000000 H
   H2         1.0     0.847743     0.372528     0.785110    Biso  1.000000 H
   H3         1.0     0.166089     0.901375     0.073253    Biso  1.000000 H
   H4         1.0     0.833911     0.098625     0.926747    Biso  1.000000 H
   H5         1.0     0.450445     0.020402     0.139691    Biso  1.000000 H
   H6         1.0     0.549555     0.979598     0.860309    Biso  1.000000 H
   H7         1.0     0.652515     0.870115     0.354792    Biso  1.000000 H
   H8         1.0     0.347486     0.129885     0.645208    Biso  1.000000 H
   H9         1.0     0.131072     0.254821     0.504017    Biso  1.000000 H
   H10        1.0     0.868928     0.745179     0.495983    Biso  1.000000 H
   H11        1.0     0.391004     0.467104     0.147436    Biso  1.000000 H
   H12        1.0     0.608996     0.532896     0.852564    Biso  1.000000 H
   H13        1.0     0.933826     0.128215     0.478076    Biso  1.000000 H
   H14        1.0     0.066174     0.871785     0.521923    Biso  1.000000 H
   H15        1.0     0.689592     0.001455     0.414135    Biso  1.000000 H
   H16        1.0     0.310408     0.998545     0.585865    Biso  1.000000 H
   H17        1.0     0.027001     0.275469     0.928039    Biso  1.000000 H
   H18        1.0     0.972999     0.724531     0.071960    Biso  1.000000 H
   H19        1.0     0.265232     0.422776     0.972687    Biso  1.000000 H
   H20        1.0     0.734768     0.577224     0.027313    Biso  1.000000 H
   N1         1.0     0.832386     0.133615     0.168380    Biso  1.000000 N
   N2         1.0     0.167615     0.866385     0.831620    Biso  1.000000 N
