
#======================================================================
# CRYSTAL DATA
#----------------------------------------------------------------------
data_VESTA_phase_1

_chemical_name_common                  'C2 0GPa opt D3'
_cell_length_a                         7.723639
_cell_length_b                         5.582665
_cell_length_c                         22.645264
_cell_angle_alpha                      90.000000
_cell_angle_beta                       96.746284
_cell_angle_gamma                      90.000000
_cell_volume                           969.668888
_space_group_name_H-M_alt              'P 1'
_space_group_IT_number                 1

loop_
_space_group_symop_operation_xyz
   'x, y, z'

loop_
   _atom_site_label
   _atom_site_occupancy
   _atom_site_fract_x
   _atom_site_fract_y
   _atom_site_fract_z
   _atom_site_adp_type
   _atom_site_B_iso_or_equiv
   _atom_site_type_symbol
   C1         1.0     0.200302     0.024037     0.291629    Biso  1.000000 C
   C2         1.0     0.799698     0.975963     0.708371    Biso  1.000000 C
   C3         1.0     0.799698     0.524037     0.208371    Biso  1.000000 C
   C4         1.0     0.200302     0.475963     0.791629    Biso  1.000000 C
   C5         1.0     0.342953     0.023078     0.335261    Biso  1.000000 C
   C6         1.0     0.657047     0.976922     0.664739    Biso  1.000000 C
   C7         1.0     0.657047     0.523078     0.164739    Biso  1.000000 C
   C8         1.0     0.342953     0.476922     0.835261    Biso  1.000000 C
   C9         1.0     0.462582     0.832320     0.337921    Biso  1.000000 C
   C10        1.0     0.537418     0.167680     0.662079    Biso  1.000000 C
   C11        1.0     0.537418     0.332320     0.162079    Biso  1.000000 C
   C12        1.0     0.462582     0.667680     0.837921    Biso  1.000000 C
   C13        1.0     0.425266     0.646664     0.296472    Biso  1.000000 C
   C14        1.0     0.574734     0.353336     0.703528    Biso  1.000000 C
   C15        1.0     0.574734     0.146664     0.203528    Biso  1.000000 C
   C16        1.0     0.425266     0.853336     0.796472    Biso  1.000000 C
   C17        1.0     0.277831     0.661539     0.254953    Biso  1.000000 C
   C18        1.0     0.722169     0.338461     0.745047    Biso  1.000000 C
   C19        1.0     0.722169     0.161539     0.245047    Biso  1.000000 C
   C20        1.0     0.277831     0.838461     0.754953    Biso  1.000000 C
   C21        1.0     0.618706     0.818321     0.380855    Biso  1.000000 C
   C22        1.0     0.381294     0.181679     0.619145    Biso  1.000000 C
   C23        1.0     0.381294     0.318321     0.119145    Biso  1.000000 C
   C24        1.0     0.618706     0.681679     0.880855    Biso  1.000000 C
   C25        1.0     0.691252     1.002429     0.413624    Biso  1.000000 C
   C26        1.0     0.308748    -0.002429     0.586376    Biso  1.000000 C
   C27        1.0     0.308748     0.502429     0.086376    Biso  1.000000 C
   C28        1.0     0.691252     0.497571     0.913624    Biso  1.000000 C
   C29        1.0     0.847954     0.993082     0.456920    Biso  1.000000 C
   C30        1.0     0.152046     0.006918     0.543080    Biso  1.000000 C
   C31        1.0     0.152046     0.493082     0.043080    Biso  1.000000 C
   C32        1.0     0.847954     0.506918     0.956920    Biso  1.000000 C
   C33        1.0     0.866710     0.825184     0.504358    Biso  1.000000 C
   C34        1.0     0.133290     0.174816     0.495642    Biso  1.000000 C
   C35        1.0     0.133290     0.325184     0.995642    Biso  1.000000 C
   C36        1.0     0.866710     0.674816     0.004358    Biso  1.000000 C
   C37        1.0     0.019527     0.834153     0.547714    Biso  1.000000 C
   C38        1.0     0.980473     0.165847     0.452285    Biso  1.000000 C
   C39        1.0     0.980473     0.334153     0.952285    Biso  1.000000 C
   C40        1.0     0.019527     0.665847     0.047714    Biso  1.000000 C
   C41        1.0     0.031142     0.670523     0.596395    Biso  1.000000 C
   C42        1.0     0.968858     0.329477     0.403605    Biso  1.000000 C
   C43        1.0     0.968858     0.170523     0.903605    Biso  1.000000 C
   C44        1.0     0.031142     0.829477     0.096395    Biso  1.000000 C
   C45        1.0     0.907199     0.497717     0.601000    Biso  1.000000 C
   C46        1.0     0.092801     0.502284     0.399000    Biso  1.000000 C
   C47        1.0     0.092801    -0.002283     0.899000    Biso  1.000000 C
   C48        1.0     0.907199     1.002283     0.101000    Biso  1.000000 C
   C49        1.0     0.758964     0.486164     0.557975    Biso  1.000000 C
   C50        1.0     0.241036     0.513836     0.442025    Biso  1.000000 C
   C51        1.0     0.241036     0.986164     0.942025    Biso  1.000000 C
   C52        1.0     0.758964     0.013836     0.057975    Biso  1.000000 C
   C53        1.0     0.737619     0.648887     0.512243    Biso  1.000000 C
   C54        1.0     0.262381     0.351113     0.487757    Biso  1.000000 C
   C55        1.0     0.262381     0.148887     0.987757    Biso  1.000000 C
   C56        1.0     0.737619     0.851113     0.012243    Biso  1.000000 C
   H1         1.0     0.106687     0.171697     0.288611    Biso  1.000000 H
   H2         1.0     0.893313     0.828303     0.711389    Biso  1.000000 H
   H3         1.0     0.893313     0.671697     0.211389    Biso  1.000000 H
   H4         1.0     0.106687     0.328303     0.788611    Biso  1.000000 H
   H5         1.0     0.357979     0.168972     0.367406    Biso  1.000000 H
   H6         1.0     0.642021     0.831028     0.632594    Biso  1.000000 H
   H7         1.0     0.642021     0.668972     0.132594    Biso  1.000000 H
   H8         1.0     0.357979     0.331028     0.867406    Biso  1.000000 H
   H9         1.0     0.511354     0.492021     0.296378    Biso  1.000000 H
   H10        1.0     0.488646     0.507979     0.703622    Biso  1.000000 H
   H11        1.0     0.488646    -0.007979     0.203622    Biso  1.000000 H
   H12        1.0     0.511354     1.007979     0.796378    Biso  1.000000 H
   H13        1.0     0.247314     0.517235     0.222854    Biso  1.000000 H
   H14        1.0     0.752686     0.482765     0.777146    Biso  1.000000 H
   H15        1.0     0.752686     0.017235     0.277146    Biso  1.000000 H
   H16        1.0     0.247314     0.982765     0.722854    Biso  1.000000 H
   H17        1.0     0.684611     0.644840     0.384050    Biso  1.000000 H
   H18        1.0     0.315389     0.355160     0.615950    Biso  1.000000 H
   H19        1.0     0.315389     0.144840     0.115950    Biso  1.000000 H
   H20        1.0     0.684611     0.855160     0.884050    Biso  1.000000 H
   H21        1.0     0.632134     0.179922     0.406591    Biso  1.000000 H
   H22        1.0     0.367866     0.820078     0.593409    Biso  1.000000 H
   H23        1.0     0.367866     0.679922     0.093409    Biso  1.000000 H
   H24        1.0     0.632134     0.320078     0.906591    Biso  1.000000 H
   H25        1.0     0.138353     0.686334     0.631923    Biso  1.000000 H
   H26        1.0     0.861647     0.313666     0.368077    Biso  1.000000 H
   H27        1.0     0.861647     0.186334     0.868077    Biso  1.000000 H
   H28        1.0     0.138353     0.813666     0.131923    Biso  1.000000 H
   H29        1.0     0.920960     0.374057     0.638466    Biso  1.000000 H
   H30        1.0     0.079040     0.625943     0.361534    Biso  1.000000 H
   H31        1.0     0.079040     0.874057     0.861534    Biso  1.000000 H
   H32        1.0     0.920960     0.125943     0.138466    Biso  1.000000 H
   H33        1.0     0.660599     0.349157     0.561821    Biso  1.000000 H
   H34        1.0     0.339401     0.650843     0.438179    Biso  1.000000 H
   H35        1.0     0.339401     0.849157     0.938179    Biso  1.000000 H
   H36        1.0     0.660599     0.150843     0.061821    Biso  1.000000 H
   H37        1.0     0.619918     0.643333     0.480883    Biso  1.000000 H
   H38        1.0     0.380082     0.356667     0.519117    Biso  1.000000 H
   H39        1.0     0.380082     0.143333     0.019117    Biso  1.000000 H
   H40        1.0     0.619918     0.856667     0.980883    Biso  1.000000 H
   N1         1.0     0.166396     0.847352     0.251291    Biso  1.000000 N
   N2         1.0     0.833604     0.152648     0.748709    Biso  1.000000 N
   N3         1.0     0.833604     0.347352     0.248709    Biso  1.000000 N
   N4         1.0     0.166396     0.652648     0.751291    Biso  1.000000 N
