
#======================================================================
# CRYSTAL DATA
#----------------------------------------------------------------------
data_VESTA_phase_1

_chemical_name_common                  'C2 6GPa opt D3'
_cell_length_a                         7.259850
_cell_length_b                         5.087523
_cell_length_c                         20.767340
_cell_angle_alpha                      90.000000
_cell_angle_beta                       91.898399
_cell_angle_gamma                      90.000000
_cell_volume                           766.613460
_space_group_name_H-M_alt              'P 1'
_space_group_IT_number                 1

loop_
_space_group_symop_operation_xyz
   'x, y, z'

loop_
   _atom_site_label
   _atom_site_occupancy
   _atom_site_fract_x
   _atom_site_fract_y
   _atom_site_fract_z
   _atom_site_adp_type
   _atom_site_B_iso_or_equiv
   _atom_site_type_symbol
   C1         1.0     0.193601     0.114038     0.290203    Biso  1.000000 C
   C2         1.0     0.806399     0.885962     0.709797    Biso  1.000000 C
   C3         1.0     0.806399     0.614038     0.209797    Biso  1.000000 C
   C4         1.0     0.193601     0.385962     0.790203    Biso  1.000000 C
   C5         1.0     0.337003     0.090273     0.335367    Biso  1.000000 C
   C6         1.0     0.662997     0.909727     0.664633    Biso  1.000000 C
   C7         1.0     0.662997     0.590273     0.164633    Biso  1.000000 C
   C8         1.0     0.337003     0.409727     0.835367    Biso  1.000000 C
   C9         1.0     0.451101     0.869654     0.334067    Biso  1.000000 C
   C10        1.0     0.548899     0.130346     0.665933    Biso  1.000000 C
   C11        1.0     0.548899     0.369654     0.165933    Biso  1.000000 C
   C12        1.0     0.451101     0.630346     0.834067    Biso  1.000000 C
   C13        1.0     0.405341     0.674557     0.289148    Biso  1.000000 C
   C14        1.0     0.594659     0.325443     0.710852    Biso  1.000000 C
   C15        1.0     0.594659     0.174557     0.210852    Biso  1.000000 C
   C16        1.0     0.405341     0.825443     0.789148    Biso  1.000000 C
   C17        1.0     0.256104     0.711630     0.246742    Biso  1.000000 C
   C18        1.0     0.743896     0.288370     0.753258    Biso  1.000000 C
   C19        1.0     0.743896     0.211630     0.253258    Biso  1.000000 C
   C20        1.0     0.256104     0.788370     0.746742    Biso  1.000000 C
   C21        1.0     0.609869     0.837157     0.377219    Biso  1.000000 C
   C22        1.0     0.390131     0.162843     0.622781    Biso  1.000000 C
   C23        1.0     0.390131     0.337157     0.122781    Biso  1.000000 C
   C24        1.0     0.609869     0.662843     0.877219    Biso  1.000000 C
   C25        1.0     0.683943     1.031240     0.413535    Biso  1.000000 C
   C26        1.0     0.316057    -0.031240     0.586465    Biso  1.000000 C
   C27        1.0     0.316057     0.531240     0.086465    Biso  1.000000 C
   C28        1.0     0.683943     0.468760     0.913535    Biso  1.000000 C
   C29        1.0     0.843962     1.007122     0.456862    Biso  1.000000 C
   C30        1.0     0.156038    -0.007122     0.543138    Biso  1.000000 C
   C31        1.0     0.156038     0.507122     0.043138    Biso  1.000000 C
   C32        1.0     0.843962     0.492878     0.956862    Biso  1.000000 C
   C33        1.0     0.855184     0.813376     0.505461    Biso  1.000000 C
   C34        1.0     0.144816     0.186624     0.494539    Biso  1.000000 C
   C35        1.0     0.144816     0.313376     0.994539    Biso  1.000000 C
   C36        1.0     0.855184     0.686624     0.005461    Biso  1.000000 C
   C37        1.0     0.012500     0.808869     0.549056    Biso  1.000000 C
   C38        1.0     0.987500     0.191131     0.450944    Biso  1.000000 C
   C39        1.0     0.987500     0.308869     0.950944    Biso  1.000000 C
   C40        1.0     0.012500     0.691131     0.049056    Biso  1.000000 C
   C41        1.0     0.021511     0.614338     0.597824    Biso  1.000000 C
   C42        1.0     0.978489     0.385662     0.402176    Biso  1.000000 C
   C43        1.0     0.978489     0.114338     0.902176    Biso  1.000000 C
   C44        1.0     0.021511     0.885662     0.097824    Biso  1.000000 C
   C45        1.0     0.894038     0.417507     0.600386    Biso  1.000000 C
   C46        1.0     0.105962     0.582493     0.399614    Biso  1.000000 C
   C47        1.0     0.105962    -0.082493     0.899614    Biso  1.000000 C
   C48        1.0     0.894038     1.082493     0.100386    Biso  1.000000 C
   C49        1.0     0.742065     0.417652     0.556306    Biso  1.000000 C
   C50        1.0     0.257935     0.582348     0.443694    Biso  1.000000 C
   C51        1.0     0.257935     0.917652     0.943694    Biso  1.000000 C
   C52        1.0     0.742065     0.082348     0.056306    Biso  1.000000 C
   C53        1.0     0.718917     0.617014     0.512447    Biso  1.000000 C
   C54        1.0     0.281083     0.382986     0.487553    Biso  1.000000 C
   C55        1.0     0.281083     0.117014     0.987553    Biso  1.000000 C
   C56        1.0     0.718917     0.882986     0.012447    Biso  1.000000 C
   H1         1.0     0.103933     0.285538     0.289181    Biso  1.000000 H
   H2         1.0     0.896067     0.714462     0.710819    Biso  1.000000 H
   H3         1.0     0.896067     0.785538     0.210819    Biso  1.000000 H
   H4         1.0     0.103933     0.214462     0.789181    Biso  1.000000 H
   H5         1.0     0.357844     0.242508     0.371423    Biso  1.000000 H
   H6         1.0     0.642156     0.757492     0.628577    Biso  1.000000 H
   H7         1.0     0.642156     0.742508     0.128577    Biso  1.000000 H
   H8         1.0     0.357844     0.257492     0.871423    Biso  1.000000 H
   H9         1.0     0.486454     0.496210     0.287358    Biso  1.000000 H
   H10        1.0     0.513546     0.503790     0.712642    Biso  1.000000 H
   H11        1.0     0.513546    -0.003790     0.212642    Biso  1.000000 H
   H12        1.0     0.486454     1.003790     0.787358    Biso  1.000000 H
   H13        1.0     0.217026     0.560637     0.211765    Biso  1.000000 H
   H14        1.0     0.782974     0.439363     0.788235    Biso  1.000000 H
   H15        1.0     0.782974     0.060637     0.288235    Biso  1.000000 H
   H16        1.0     0.217026     0.939363     0.711765    Biso  1.000000 H
   H17        1.0     0.675798     0.645025     0.377266    Biso  1.000000 H
   H18        1.0     0.324202     0.354975     0.622734    Biso  1.000000 H
   H19        1.0     0.324202     0.145025     0.122734    Biso  1.000000 H
   H20        1.0     0.675798     0.854975     0.877266    Biso  1.000000 H
   H21        1.0     0.624377     0.227887     0.409087    Biso  1.000000 H
   H22        1.0     0.375623     0.772113     0.590913    Biso  1.000000 H
   H23        1.0     0.375623     0.727887     0.090913    Biso  1.000000 H
   H24        1.0     0.624377     0.272113     0.909087    Biso  1.000000 H
   H25        1.0     0.130961     0.620665     0.634567    Biso  1.000000 H
   H26        1.0     0.869039     0.379335     0.365433    Biso  1.000000 H
   H27        1.0     0.869039     0.120665     0.865433    Biso  1.000000 H
   H28        1.0     0.130961     0.879335     0.134567    Biso  1.000000 H
   H29        1.0     0.909712     0.264628     0.636593    Biso  1.000000 H
   H30        1.0     0.090288     0.735372     0.363407    Biso  1.000000 H
   H31        1.0     0.090288     0.764628     0.863407    Biso  1.000000 H
   H32        1.0     0.909712     0.235372     0.136593    Biso  1.000000 H
   H33        1.0     0.642850     0.258729     0.557225    Biso  1.000000 H
   H34        1.0     0.357150     0.741271     0.442775    Biso  1.000000 H
   H35        1.0     0.357150     0.758729     0.942775    Biso  1.000000 H
   H36        1.0     0.642850     0.241271     0.057225    Biso  1.000000 H
   H37        1.0     0.598801     0.619651     0.480194    Biso  1.000000 H
   H38        1.0     0.401199     0.380349     0.519806    Biso  1.000000 H
   H39        1.0     0.401199     0.119651     0.019806    Biso  1.000000 H
   H40        1.0     0.598801     0.880349     0.980194    Biso  1.000000 H
   N1         1.0     0.153468     0.930639     0.245432    Biso  1.000000 N
   N2         1.0     0.846532     0.069361     0.754568    Biso  1.000000 N
   N3         1.0     0.846532     0.430639     0.254568    Biso  1.000000 N
   N4         1.0     0.153468     0.569361     0.745432    Biso  1.000000 N
