
#======================================================================
# CRYSTAL DATA
#----------------------------------------------------------------------
data_VESTA_phase_1

_chemical_name_common                  'C1_0GPa C28 H20 N2 '
_cell_length_a                         6.642133
_cell_length_b                         8.816594
_cell_length_c                         9.228617
_cell_angle_alpha                      66.121857
_cell_angle_beta                       67.348389
_cell_angle_gamma                      75.651672
_cell_volume                           453.347259
_space_group_name_H-M_alt              'P 1'
_space_group_IT_number                 1

loop_
_space_group_symop_operation_xyz
   'x, y, z'

loop_
   _atom_site_label
   _atom_site_occupancy
   _atom_site_fract_x
   _atom_site_fract_y
   _atom_site_fract_z
   _atom_site_adp_type
   _atom_site_B_iso_or_equiv
   _atom_site_type_symbol
   C1         1.0     0.303679     0.710482     0.264912    Biso  1.000000 C
   C2         1.0     0.710118     0.257730     0.747209    Biso  1.000000 C
   C3         1.0     0.333963     0.876622     0.197382    Biso  1.000000 C
   C4         1.0     0.679789     0.091602     0.814801    Biso  1.000000 C
   C5         1.0     0.475432     0.935449     0.240490    Biso  1.000000 C
   C6         1.0     0.538283     0.032759     0.771738    Biso  1.000000 C
   C7         1.0     0.576424     0.826994     0.354532    Biso  1.000000 C
   C8         1.0     0.437323     0.141164     0.657659    Biso  1.000000 C
   C9         1.0     0.547439     0.653791     0.429637    Biso  1.000000 C
   C10        1.0     0.466349     0.314366     0.582487    Biso  1.000000 C
   C11        1.0     0.409667     0.592492     0.380952    Biso  1.000000 C
   C12        1.0     0.604135     0.375674     0.631154    Biso  1.000000 C
   C13        1.0     0.371977     0.421898     0.456884    Biso  1.000000 C
   C14        1.0     0.641810     0.546261     0.555237    Biso  1.000000 C
   C15        1.0     0.237548     0.352850     0.409426    Biso  1.000000 C
   C16        1.0     0.776190     0.615297     0.602755    Biso  1.000000 C
   C17        1.0     0.265131     0.369972     0.251097    Biso  1.000000 C
   C18        1.0     0.748443     0.598295     0.761080    Biso  1.000000 C
   C19        1.0     0.131549     0.305367     0.200193    Biso  1.000000 C
   C20        1.0     0.882089     0.662807     0.812022    Biso  1.000000 C
   C21        1.0     0.937527     0.232750     0.309789    Biso  1.000000 C
   C22        1.0     0.076269     0.735213     0.702486    Biso  1.000000 C
   C23        1.0     0.810280     0.189742     0.245976    Biso  1.000000 C
   C24        1.0     0.203557     0.778151     0.766316    Biso  1.000000 C
   C25        1.0     0.054175     0.270499     0.980984    Biso  1.000000 C
   C26        1.0     0.959534     0.697551     0.031263    Biso  1.000000 C
   C27        1.0     0.190151     0.321283     0.031950    Biso  1.000000 C
   C28        1.0     0.823423     0.646972     0.980244    Biso  1.000000 C
   H1         1.0     0.197164     0.667571     0.228293    Biso  1.000000 H
   H2         1.0     0.816642     0.300671     0.783795    Biso  1.000000 H
   H3         1.0     0.250349     0.962693     0.109215    Biso  1.000000 H
   H4         1.0     0.763358     0.005551     0.903009    Biso  1.000000 H
   H5         1.0     0.506021     0.065987     0.182185    Biso  1.000000 H
   H6         1.0     0.507633     0.902233     0.830121    Biso  1.000000 H
   H7         1.0     0.681166     0.874253     0.389308    Biso  1.000000 H
   H8         1.0     0.332575     0.093857     0.622932    Biso  1.000000 H
   H9         1.0     0.111269     0.277363     0.511887    Biso  1.000000 H
   H10        1.0     0.902612     0.690671     0.500326    Biso  1.000000 H
   H11        1.0     0.398457     0.438072     0.149204    Biso  1.000000 H
   H12        1.0     0.614975     0.530333     0.862948    Biso  1.000000 H
   H13        1.0     0.881689     0.214268     0.442543    Biso  1.000000 H
   H14        1.0     0.132178     0.753621     0.569748    Biso  1.000000 H
   H15        1.0     0.653875     0.141172     0.329204    Biso  1.000000 H
   H16        1.0     0.360018     0.826642     0.683122    Biso  1.000000 H
   H17        1.0     0.099660     0.283959     0.849837    Biso  1.000000 H
   H18        1.0     0.914045     0.684081     0.162414    Biso  1.000000 H
   H19        1.0     0.338601     0.376241     0.940359    Biso  1.000000 H
   H20        1.0     0.674860     0.592165     0.071802    Biso  1.000000 H
   N1         1.0     0.863599     0.207869     0.083890    Biso  1.000000 N
   N2         1.0     0.150214     0.760033     0.928404    Biso  1.000000 N
