
#======================================================================
# CRYSTAL DATA
#----------------------------------------------------------------------
data_VESTA_phase_1

_chemical_name_common                  'C1_6GPa C28 H20 N2'
_cell_length_a                         5.918230
_cell_length_b                         8.805621
_cell_length_c                         9.111814
_cell_angle_alpha                      63.058880
_cell_angle_beta                       61.231224
_cell_angle_gamma                      71.722397
_cell_volume                           368.280290
_space_group_name_H-M_alt              'P 1'
_space_group_IT_number                 1

loop_
_space_group_symop_operation_xyz
   'x, y, z'

loop_
   _atom_site_label
   _atom_site_occupancy
   _atom_site_fract_x
   _atom_site_fract_y
   _atom_site_fract_z
   _atom_site_adp_type
   _atom_site_B_iso_or_equiv
   _atom_site_type_symbol
   C1         1.0     0.263871     0.729835     0.259679    Biso  1.000000 C
   C2         1.0     0.736129     0.270165     0.740321    Biso  1.000000 C
   C3         1.0     0.287877     0.900815     0.185136    Biso  1.000000 C
   C4         1.0     0.712123     0.099185     0.814864    Biso  1.000000 C
   C5         1.0     0.464743     0.959273     0.204657    Biso  1.000000 C
   C6         1.0     0.535257     0.040727     0.795343    Biso  1.000000 C
   C7         1.0     0.593545     0.847098     0.310459    Biso  1.000000 C
   C8         1.0     0.406455     0.152902     0.689540    Biso  1.000000 C
   C9         1.0     0.550026     0.672401     0.407294    Biso  1.000000 C
   C10        1.0     0.449974     0.327599     0.592706    Biso  1.000000 C
   C11        1.0     0.393179     0.609472     0.371752    Biso  1.000000 C
   C12        1.0     0.606821     0.390528     0.628248    Biso  1.000000 C
   C13        1.0     0.353333     0.434608     0.458399    Biso  1.000000 C
   C14        1.0     0.646667     0.565392     0.541601    Biso  1.000000 C
   C15        1.0     0.236521     0.356705     0.406809    Biso  1.000000 C
   C16        1.0     0.763479     0.643295     0.593191    Biso  1.000000 C
   C17        1.0     0.256654     0.394959     0.240354    Biso  1.000000 C
   C18        1.0     0.743346     0.605041     0.759646    Biso  1.000000 C
   C19        1.0     0.128317     0.311484     0.202045    Biso  1.000000 C
   C20        1.0     0.871683     0.688516     0.797955    Biso  1.000000 C
   C21        1.0     0.936009     0.204341     0.335667    Biso  1.000000 C
   C22        1.0     0.063991     0.795659     0.664333    Biso  1.000000 C
   C23        1.0     0.779861     0.165523     0.286489    Biso  1.000000 C
   C24        1.0     0.220139     0.834477     0.713511    Biso  1.000000 C
   C25        1.0     0.017594     0.295045     0.988862    Biso  1.000000 C
   C26        1.0     0.982406     0.704955     0.011138    Biso  1.000000 C
   C27        1.0     0.174526     0.350062     0.024400    Biso  1.000000 C
   C28        1.0     0.825474     0.649938     0.975600    Biso  1.000000 C
   H1         1.0     0.131658     0.684875     0.242180    Biso  1.000000 H
   H2         1.0     0.868342     0.315125     0.757820    Biso  1.000000 H
   H3         1.0     0.178625     0.989370     0.105776    Biso  1.000000 H
   H4         1.0     0.821375     0.010630     0.894224    Biso  1.000000 H
   H5         1.0     0.505778     0.091287     0.134816    Biso  1.000000 H
   H6         1.0     0.494222     0.908713     0.865184    Biso  1.000000 H
   H7         1.0     0.734409     0.893433     0.318723    Biso  1.000000 H
   H8         1.0     0.265591     0.106567     0.681277    Biso  1.000000 H
   H9         1.0     0.136855     0.246393     0.510814    Biso  1.000000 H
   H10        1.0     0.863145     0.753607     0.489186    Biso  1.000000 H
   H11        1.0     0.366729     0.496786     0.125686    Biso  1.000000 H
   H12        1.0     0.633271     0.503214     0.874314    Biso  1.000000 H
   H13        1.0     0.896987     0.160023     0.476857    Biso  1.000000 H
   H14        1.0     0.103013     0.839977     0.523143    Biso  1.000000 H
   H15        1.0     0.611485     0.099387     0.390812    Biso  1.000000 H
   H16        1.0     0.388515     0.900613     0.609188    Biso  1.000000 H
   H17        1.0     0.048842     0.332536     0.850363    Biso  1.000000 H
   H18        1.0     0.951158     0.667464     0.149637    Biso  1.000000 H
   H19        1.0     0.316150     0.434990     0.914368    Biso  1.000000 H
   H20        1.0     0.683850     0.565010     0.085632    Biso  1.000000 H
   N1         1.0     0.813287     0.211351     0.115735    Biso  1.000000 N
   N2         1.0     0.186713     0.788649     0.884265    Biso  1.000000 N
