
#======================================================================
# CRYSTAL DATA
#----------------------------------------------------------------------
data_VESTA_phase_1

_chemical_name_common                  'C2_0GPa  C56 H40 N4   '
_cell_length_a                         7.511239
_cell_length_b                         5.383802
_cell_length_c                         22.058100
_cell_angle_alpha                      90.000000
_cell_angle_beta                       94.309540
_cell_angle_gamma                      90.000000
_cell_volume                           889.486002
_space_group_name_H-M_alt              'P 1'
_space_group_IT_number                 1

loop_
_space_group_symop_operation_xyz
   'x, y, z'

loop_
   _atom_site_label
   _atom_site_occupancy
   _atom_site_fract_x
   _atom_site_fract_y
   _atom_site_fract_z
   _atom_site_adp_type
   _atom_site_B_iso_or_equiv
   _atom_site_type_symbol
   C1         1.0     0.201271     0.050031     0.291784    Biso  1.000000 C
   C2         1.0     0.798729     0.949969     0.708216    Biso  1.000000 C
   C3         1.0     0.798729     0.550031     0.208216    Biso  1.000000 C
   C4         1.0     0.201271     0.449969     0.791784    Biso  1.000000 C
   C5         1.0     0.344753     0.039869     0.335372    Biso  1.000000 C
   C6         1.0     0.655247     0.960131     0.664628    Biso  1.000000 C
   C7         1.0     0.655247     0.539869     0.164628    Biso  1.000000 C
   C8         1.0     0.344753     0.460131     0.835372    Biso  1.000000 C
   C9         1.0     0.462170     0.836389     0.336282    Biso  1.000000 C
   C10        1.0     0.537830     0.163611     0.663718    Biso  1.000000 C
   C11        1.0     0.537830     0.336389     0.163718    Biso  1.000000 C
   C12        1.0     0.462170     0.663611     0.836282    Biso  1.000000 C
   C13        1.0     0.421260     0.646979     0.293769    Biso  1.000000 C
   C14        1.0     0.578740     0.353021     0.706231    Biso  1.000000 C
   C15        1.0     0.578740     0.146979     0.206231    Biso  1.000000 C
   C16        1.0     0.421260     0.853021     0.793769    Biso  1.000000 C
   C17        1.0     0.272586     0.671108     0.252579    Biso  1.000000 C
   C18        1.0     0.727414     0.328892     0.747421    Biso  1.000000 C
   C19        1.0     0.727414     0.171108     0.247421    Biso  1.000000 C
   C20        1.0     0.272586     0.828892     0.752579    Biso  1.000000 C
   C21        1.0     0.618873     0.813852     0.379062    Biso  1.000000 C
   C22        1.0     0.381127     0.186148     0.620938    Biso  1.000000 C
   C23        1.0     0.381127     0.313852     0.120938    Biso  1.000000 C
   C24        1.0     0.618873     0.686148     0.879062    Biso  1.000000 C
   C25        1.0     0.694788     1.003465     0.411670    Biso  1.000000 C
   C26        1.0     0.305212    -0.003465     0.588331    Biso  1.000000 C
   C27        1.0     0.305212     0.503465     0.088331    Biso  1.000000 C
   C28        1.0     0.694788     0.496535     0.911670    Biso  1.000000 C
   C29        1.0     0.850143     0.991951     0.455658    Biso  1.000000 C
   C30        1.0     0.149857     0.008049     0.544342    Biso  1.000000 C
   C31        1.0     0.149857     0.491951     0.044342    Biso  1.000000 C
   C32        1.0     0.850143     0.508049     0.955658    Biso  1.000000 C
   C33        1.0     0.864146     0.815374     0.503612    Biso  1.000000 C
   C34        1.0     0.135854     0.184626     0.496388    Biso  1.000000 C
   C35        1.0     0.135854     0.315374     0.996388    Biso  1.000000 C
   C36        1.0     0.864146     0.684626     0.003612    Biso  1.000000 C
   C37        1.0     0.014612     0.825832     0.548327    Biso  1.000000 C
   C38        1.0     0.985388     0.174168     0.451673    Biso  1.000000 C
   C39        1.0     0.985388     0.325832     0.951673    Biso  1.000000 C
   C40        1.0     0.014612     0.674168     0.048327    Biso  1.000000 C
   C41        1.0     0.021339     0.653698     0.597585    Biso  1.000000 C
   C42        1.0     0.978661     0.346302     0.402415    Biso  1.000000 C
   C43        1.0     0.978661     0.153698     0.902415    Biso  1.000000 C
   C44        1.0     0.021339     0.846302     0.097585    Biso  1.000000 C
   C45        1.0     0.895846     0.470246     0.601236    Biso  1.000000 C
   C46        1.0     0.104154     0.529754     0.398764    Biso  1.000000 C
   C47        1.0     0.104154    -0.029754     0.898764    Biso  1.000000 C
   C48        1.0     0.895846     1.029754     0.101236    Biso  1.000000 C
   C49        1.0     0.750452     0.456682     0.556731    Biso  1.000000 C
   C50        1.0     0.249548     0.543318     0.443269    Biso  1.000000 C
   C51        1.0     0.249548     0.956682     0.943269    Biso  1.000000 C
   C52        1.0     0.750452     0.043318     0.056731    Biso  1.000000 C
   C53        1.0     0.732765     0.628312     0.510621    Biso  1.000000 C
   C54        1.0     0.267235     0.371688     0.489379    Biso  1.000000 C
   C55        1.0     0.267235     0.128312     0.989379    Biso  1.000000 C
   C56        1.0     0.732765     0.871688     0.010621    Biso  1.000000 C
   H1         1.0     0.109509     0.207796     0.289924    Biso  1.000000 H
   H2         1.0     0.890491     0.792204     0.710076    Biso  1.000000 H
   H3         1.0     0.890491     0.707796     0.210076    Biso  1.000000 H
   H4         1.0     0.109509     0.292204     0.789924    Biso  1.000000 H
   H5         1.0     0.361991     0.188342     0.368862    Biso  1.000000 H
   H6         1.0     0.638009     0.811658     0.631138    Biso  1.000000 H
   H7         1.0     0.638009     0.688342     0.131138    Biso  1.000000 H
   H8         1.0     0.361991     0.311658     0.868862    Biso  1.000000 H
   H9         1.0     0.505329     0.482525     0.292590    Biso  1.000000 H
   H10        1.0     0.494671     0.517475     0.707410    Biso  1.000000 H
   H11        1.0     0.494672    -0.017475     0.207410    Biso  1.000000 H
   H12        1.0     0.505329     1.017475     0.792590    Biso  1.000000 H
   H13        1.0     0.238889     0.524077     0.219603    Biso  1.000000 H
   H14        1.0     0.761111     0.475923     0.780397    Biso  1.000000 H
   H15        1.0     0.761111     0.024077     0.280397    Biso  1.000000 H
   H16        1.0     0.238889     0.975923     0.719603    Biso  1.000000 H
   H17        1.0     0.681528     0.630805     0.382379    Biso  1.000000 H
   H18        1.0     0.318472     0.369195     0.617621    Biso  1.000000 H
   H19        1.0     0.318472     0.130805     0.117621    Biso  1.000000 H
   H20        1.0     0.681528     0.869195     0.882379    Biso  1.000000 H
   H21        1.0     0.638968     0.189380     0.403562    Biso  1.000000 H
   H22        1.0     0.361032     0.810620     0.596438    Biso  1.000000 H
   H23        1.0     0.361032     0.689380     0.096438    Biso  1.000000 H
   H24        1.0     0.638968     0.310620     0.903562    Biso  1.000000 H
   H25        1.0     0.125362     0.670546     0.634455    Biso  1.000000 H
   H26        1.0     0.874638     0.329454     0.365545    Biso  1.000000 H
   H27        1.0     0.874638     0.170546     0.865545    Biso  1.000000 H
   H28        1.0     0.125362     0.829454     0.134455    Biso  1.000000 H
   H29        1.0     0.905931     0.339663     0.639044    Biso  1.000000 H
   H30        1.0     0.094069     0.660337     0.360956    Biso  1.000000 H
   H31        1.0     0.094069     0.839663     0.860956    Biso  1.000000 H
   H32        1.0     0.905931     0.160337     0.139044    Biso  1.000000 H
   H33        1.0     0.651218     0.310718     0.559553    Biso  1.000000 H
   H34        1.0     0.348782     0.689282     0.440447    Biso  1.000000 H
   H35        1.0     0.348782     0.810718     0.940447    Biso  1.000000 H
   H36        1.0     0.651218     0.189282     0.059553    Biso  1.000000 H
   H37        1.0     0.616599     0.620171     0.478256    Biso  1.000000 H
   H38        1.0     0.383401     0.379829     0.521744    Biso  1.000000 H
   H39        1.0     0.383401     0.120171     0.021744    Biso  1.000000 H
   H40        1.0     0.616599     0.879829     0.978256    Biso  1.000000 H
   N1         1.0     0.164193     0.870162     0.250178    Biso  1.000000 N
   N2         1.0     0.835806     0.129838     0.749822    Biso  1.000000 N
   N3         1.0     0.835806     0.370162     0.249822    Biso  1.000000 N
   N4         1.0     0.164193     0.629838     0.750178    Biso  1.000000 N
