
#======================================================================
# CRYSTAL DATA
#----------------------------------------------------------------------
data_VESTA_phase_1

_chemical_name_common                  'C2_6GPa C56 H40 N4   '
_cell_length_a                         7.159163
_cell_length_b                         5.031132
_cell_length_c                         20.540199
_cell_angle_alpha                      90.000000
_cell_angle_beta                       90.701836
_cell_angle_gamma                      90.000000
_cell_volume                           739.775732
_space_group_name_H-M_alt              'P 1'
_space_group_IT_number                 1

loop_
_space_group_symop_operation_xyz
   'x, y, z'

loop_
   _atom_site_label
   _atom_site_occupancy
   _atom_site_fract_x
   _atom_site_fract_y
   _atom_site_fract_z
   _atom_site_adp_type
   _atom_site_B_iso_or_equiv
   _atom_site_type_symbol
   C1         1.0     0.194991     0.128583     0.290629    Biso  1.000000 C
   C2         1.0     0.805009     0.871417     0.709371    Biso  1.000000 C
   C3         1.0     0.805009     0.628583     0.209371    Biso  1.000000 C
   C4         1.0     0.194991     0.371417     0.790629    Biso  1.000000 C
   C5         1.0     0.338580     0.099072     0.335755    Biso  1.000000 C
   C6         1.0     0.661420     0.900928     0.664245    Biso  1.000000 C
   C7         1.0     0.661420     0.599072     0.164245    Biso  1.000000 C
   C8         1.0     0.338580     0.400928     0.835755    Biso  1.000000 C
   C9         1.0     0.450964     0.872947     0.333304    Biso  1.000000 C
   C10        1.0     0.549036     0.127053     0.666696    Biso  1.000000 C
   C11        1.0     0.549036     0.372947     0.166696    Biso  1.000000 C
   C12        1.0     0.450964     0.627053     0.833304    Biso  1.000000 C
   C13        1.0     0.402063     0.677595     0.288147    Biso  1.000000 C
   C14        1.0     0.597937     0.322405     0.711853    Biso  1.000000 C
   C15        1.0     0.597937     0.177595     0.211853    Biso  1.000000 C
   C16        1.0     0.402063     0.822405     0.788147    Biso  1.000000 C
   C17        1.0     0.252062     0.720024     0.246119    Biso  1.000000 C
   C18        1.0     0.747938     0.279976     0.753881    Biso  1.000000 C
   C19        1.0     0.747938     0.220024     0.253881    Biso  1.000000 C
   C20        1.0     0.252062     0.779976     0.746119    Biso  1.000000 C
   C21        1.0     0.610606     0.833980     0.375827    Biso  1.000000 C
   C22        1.0     0.389394     0.166020     0.624173    Biso  1.000000 C
   C23        1.0     0.389394     0.333980     0.124173    Biso  1.000000 C
   C24        1.0     0.610606     0.666020     0.875827    Biso  1.000000 C
   C25        1.0     0.687878     1.029073     0.411775    Biso  1.000000 C
   C26        1.0     0.312122    -0.029073     0.588225    Biso  1.000000 C
   C27        1.0     0.312122     0.529073     0.088225    Biso  1.000000 C
   C28        1.0     0.687878     0.470927     0.911775    Biso  1.000000 C
   C29        1.0     0.846864     1.003391     0.455478    Biso  1.000000 C
   C30        1.0     0.153136    -0.003391     0.544522    Biso  1.000000 C
   C31        1.0     0.153136     0.503391     0.044522    Biso  1.000000 C
   C32        1.0     0.846864     0.496609     0.955478    Biso  1.000000 C
   C33        1.0     0.854646     0.807697     0.504635    Biso  1.000000 C
   C34        1.0     0.145354     0.192303     0.495365    Biso  1.000000 C
   C35        1.0     0.145354     0.307697     0.995365    Biso  1.000000 C
   C36        1.0     0.854646     0.692303     0.004635    Biso  1.000000 C
   C37        1.0     0.008907     0.807467     0.549660    Biso  1.000000 C
   C38        1.0     0.991093     0.192533     0.450340    Biso  1.000000 C
   C39        1.0     0.991093     0.307467     0.950340    Biso  1.000000 C
   C40        1.0     0.008907     0.692533     0.049660    Biso  1.000000 C
   C41        1.0     0.015682     0.610129     0.598676    Biso  1.000000 C
   C42        1.0     0.984318     0.389871     0.401324    Biso  1.000000 C
   C43        1.0     0.984318     0.110129     0.901324    Biso  1.000000 C
   C44        1.0     0.015682     0.889871     0.098676    Biso  1.000000 C
   C45        1.0     0.889491     0.406749     0.600326    Biso  1.000000 C
   C46        1.0     0.110509     0.593251     0.399674    Biso  1.000000 C
   C47        1.0     0.110509    -0.093251     0.899674    Biso  1.000000 C
   C48        1.0     0.889491     1.093251     0.100326    Biso  1.000000 C
   C49        1.0     0.740742     0.402372     0.554714    Biso  1.000000 C
   C50        1.0     0.259258     0.597629     0.445286    Biso  1.000000 C
   C51        1.0     0.259258     0.902371     0.945286    Biso  1.000000 C
   C52        1.0     0.740742     0.097628     0.054714    Biso  1.000000 C
   C53        1.0     0.719310     0.604181     0.510426    Biso  1.000000 C
   C54        1.0     0.280690     0.395819     0.489574    Biso  1.000000 C
   C55        1.0     0.280690     0.104181     0.989574    Biso  1.000000 C
   C56        1.0     0.719310     0.895819     0.010426    Biso  1.000000 C
   H1         1.0     0.107174     0.304885     0.290041    Biso  1.000000 H
   H2         1.0     0.892825     0.695115     0.709959    Biso  1.000000 H
   H3         1.0     0.892825     0.804885     0.209959    Biso  1.000000 H
   H4         1.0     0.107174     0.195115     0.790041    Biso  1.000000 H
   H5         1.0     0.361160     0.251462     0.372338    Biso  1.000000 H
   H6         1.0     0.638840     0.748538     0.627662    Biso  1.000000 H
   H7         1.0     0.638840     0.751462     0.127662    Biso  1.000000 H
   H8         1.0     0.361160     0.248538     0.872338    Biso  1.000000 H
   H9         1.0     0.481831     0.495431     0.286050    Biso  1.000000 H
   H10        1.0     0.518169     0.504569     0.713950    Biso  1.000000 H
   H11        1.0     0.518169    -0.004569     0.213950    Biso  1.000000 H
   H12        1.0     0.481831     1.004569     0.786050    Biso  1.000000 H
   H13        1.0     0.209847     0.568844     0.211045    Biso  1.000000 H
   H14        1.0     0.790153     0.431156     0.788955    Biso  1.000000 H
   H15        1.0     0.790153     0.068844     0.288955    Biso  1.000000 H
   H16        1.0     0.209847     0.931156     0.711045    Biso  1.000000 H
   H17        1.0     0.673320     0.637052     0.375881    Biso  1.000000 H
   H18        1.0     0.326680     0.362948     0.624119    Biso  1.000000 H
   H19        1.0     0.326680     0.137052     0.124119    Biso  1.000000 H
   H20        1.0     0.673320     0.862948     0.875881    Biso  1.000000 H
   H21        1.0     0.631510     0.229945     0.406602    Biso  1.000000 H
   H22        1.0     0.368490     0.770055     0.593398    Biso  1.000000 H
   H23        1.0     0.368490     0.729945     0.093398    Biso  1.000000 H
   H24        1.0     0.631510     0.270055     0.906602    Biso  1.000000 H
   H25        1.0     0.121928     0.619206     0.636593    Biso  1.000000 H
   H26        1.0     0.878072     0.380794     0.363407    Biso  1.000000 H
   H27        1.0     0.878072     0.119206     0.863407    Biso  1.000000 H
   H28        1.0     0.121928     0.880794     0.136593    Biso  1.000000 H
   H29        1.0     0.904485     0.252036     0.636771    Biso  1.000000 H
   H30        1.0     0.095515     0.747965     0.363229    Biso  1.000000 H
   H31        1.0     0.095515     0.752036     0.863229    Biso  1.000000 H
   H32        1.0     0.904485     0.247964     0.136771    Biso  1.000000 H
   H33        1.0     0.644059     0.236824     0.554028    Biso  1.000000 H
   H34        1.0     0.355941     0.763176     0.445972    Biso  1.000000 H
   H35        1.0     0.355941     0.736824     0.945972    Biso  1.000000 H
   H36        1.0     0.644059     0.263176     0.054028    Biso  1.000000 H
   H37        1.0     0.603039     0.600648     0.476367    Biso  1.000000 H
   H38        1.0     0.396961     0.399352     0.523633    Biso  1.000000 H
   H39        1.0     0.396961     0.100648     0.023633    Biso  1.000000 H
   H40        1.0     0.603039     0.899352     0.976367    Biso  1.000000 H
   N1         1.0     0.152281     0.945425     0.245408    Biso  1.000000 N
   N2         1.0     0.847719     0.054575     0.754592    Biso  1.000000 N
   N3         1.0     0.847719     0.445425     0.254592    Biso  1.000000 N
   N4         1.0     0.152281     0.554575     0.745408    Biso  1.000000 N
